REMARK  Name = ala.pdb
REMARK                            x       y       z     vdW  Elec       q    Type
REMARK                         _______ _______ _______ _____ _____    ______ ____
ROOT
ATOM      1  CB  ALA A  1        1.803  -1.664   0.181  0.00  0.00    +0.035 C 
ATOM      2  CA  ALA A  1        1.466  -0.835  -1.071  0.00  0.00    +0.158 C 
ENDROOT
BRANCH   2   3
ATOM      3  N   ALA A  1        2.756  -0.532  -1.740  0.00  0.00    -0.319 NA
ATOM      4  H1  ALA A  1        3.310   0.047  -1.102  0.00  0.00    +0.119 HD
ATOM      5  H2  ALA A  1        3.280  -1.391  -1.903  0.00  0.00    +0.119 HD
ENDBRANCH   2   3
BRANCH   2   6
ATOM      6  C   ALA A  1        0.627   0.421  -0.717  0.00  0.00    +0.321 C 
ATOM      7  OXT ALA A  1        0.999   1.359  -0.045  0.00  0.00    -0.249 OA
BRANCH   6   8
ATOM      8  O   ALA A  1       -0.664   0.375  -1.043  0.00  0.00    -0.480 OA
ATOM      9  H   ALA A  1       -0.922   1.235  -0.673  0.00  0.00    +0.295 HD
ENDBRANCH   6   8
ENDBRANCH   2   6
TORSDOF 3
