REMARK  Name = arg.pdb
REMARK                            x       y       z     vdW  Elec       q    Type
REMARK                         _______ _______ _______ _____ _____    ______ ____
ROOT
ATOM      1  CG  ARG A  1        0.738  -0.907   0.424  0.00  0.00    +0.039 C 
ENDROOT
BRANCH   1   2
ATOM      2  CB  ARG A  1        1.899  -1.932   0.491  0.00  0.00    +0.033 C 
BRANCH   2   3
ATOM      3  CA  ARG A  1        2.958  -1.728  -0.623  0.00  0.00    +0.161 C 
BRANCH   3   4
ATOM      4  N   ARG A  1        2.337  -1.960  -1.954  0.00  0.00    -0.318 NA
ATOM      5  H1  ARG A  1        1.444  -1.478  -2.035  0.00  0.00    +0.119 HD
ATOM      6  H2  ARG A  1        2.170  -2.961  -2.096  0.00  0.00    +0.119 HD
ENDBRANCH   3   4
BRANCH   3   7
ATOM      7  C   ARG A  1        4.239  -2.564  -0.345  0.00  0.00    +0.322 C 
ATOM      8  OXT ARG A  1        5.208  -2.149   0.249  0.00  0.00    -0.249 OA
BRANCH   7   9
ATOM      9  O   ARG A  1        4.057  -3.890  -0.345  0.00  0.00    -0.480 OA
ATOM     10  H   ARG A  1        4.919  -4.144   0.027  0.00  0.00    +0.295 HD
ENDBRANCH   7   9
ENDBRANCH   3   7
ENDBRANCH   2   3
ENDBRANCH   1   2
BRANCH   1  11
ATOM     11  CD  ARG A  1       -0.332  -1.160   1.508  0.00  0.00    +0.196 C 
BRANCH  11  12
ATOM     12  NE  ARG A  1       -1.392  -0.131   1.461  0.00  0.00    -0.279 N 
ATOM     13  HE  ARG A  1       -1.111   0.723   0.996  0.00  0.00    +0.258 HD
BRANCH  12  14
ATOM     14  CZ  ARG A  1       -2.599  -0.187   2.032  0.00  0.00    +0.341 C 
ATOM     15  NH1 ARG A  1       -3.362   0.896   2.081  0.00  0.00    -0.292 N 
ATOM     16 HH11 ARG A  1       -4.266   0.891   2.531  0.00  0.00    +0.255 HD
ATOM     17 HH12 ARG A  1       -3.033   1.806   1.790  0.00  0.00    +0.255 HD
BRANCH  14  18
ATOM     18  NH2 ARG A  1       -3.071  -1.322   2.529  0.00  0.00    -0.292 N 
ATOM     19 HH21 ARG A  1       -4.005  -1.406   2.902  0.00  0.00    +0.255 HD
ATOM     20 HH22 ARG A  1       -2.548  -2.184   2.464  0.00  0.00    +0.255 HD
ENDBRANCH  14  18
ENDBRANCH  12  14
ENDBRANCH  11  12
ENDBRANCH   1  11
TORSDOF 9
