REMARK  Name = asn.pdb
REMARK                            x       y       z     vdW  Elec       q    Type
REMARK                         _______ _______ _______ _____ _____    ______ ____
ROOT
ATOM      1  CA  ASN A  1        1.612   1.840  -2.176  0.00  0.00    +0.169 C 
ENDROOT
BRANCH   1   2
ATOM      2  N   ASN A  1        1.094   2.693  -3.275  0.00  0.00    -0.318 NA
ATOM      3  H1  ASN A  1        0.186   3.082  -2.967  0.00  0.00    +0.119 HD
ATOM      4  H2  ASN A  1        0.862   2.125  -4.089  0.00  0.00    +0.119 HD
ENDBRANCH   1   2
BRANCH   1   5
ATOM      5  C   ASN A  1        2.811   0.935  -2.582  0.00  0.00    +0.322 C 
ATOM      6  OXT ASN A  1        3.978   1.236  -2.449  0.00  0.00    -0.249 OA
BRANCH   5   7
ATOM      7  O   ASN A  1        2.538  -0.365  -2.754  0.00  0.00    -0.480 OA
ATOM      8  H   ASN A  1        3.451  -0.698  -2.783  0.00  0.00    +0.295 HD
ENDBRANCH   5   7
ENDBRANCH   1   5
BRANCH   1   9
ATOM      9  CB  ASN A  1        0.422   1.095  -1.525  0.00  0.00    +0.125 C 
BRANCH   9  13
ATOM     10  ND2 ASN A  1       -0.506   2.483   0.261  0.00  0.00    -0.329 N 
ATOM     11 HD21 ASN A  1        0.196   2.083   0.867  0.00  0.00    +0.145 HD
ATOM     12 HD22 ASN A  1       -1.037   3.303   0.514  0.00  0.00    +0.145 HD
ATOM     13  CG  ASN A  1       -0.615   2.088  -1.034  0.00  0.00    +0.213 C 
ATOM     14  OD1 ASN A  1       -1.329   2.724  -1.780  0.00  0.00    -0.276 OA
ENDBRANCH   9  13
ENDBRANCH   1   9
TORSDOF 5
