REMARK  Name = asp.pdb
REMARK                            x       y       z     vdW  Elec       q    Type
REMARK                         _______ _______ _______ _____ _____    ______ ____
ROOT
ATOM      1  CA  ASP A  1        1.677   1.798  -2.019  0.00  0.00    +0.171 C 
ENDROOT
BRANCH   1   2
ATOM      2  N   ASP A  1        1.040   2.666  -3.038  0.00  0.00    -0.318 NA
ATOM      3  H1  ASP A  1        0.273   3.146  -2.523  0.00  0.00    +0.119 HD
ATOM      4  H2  ASP A  1        0.551   2.063  -3.695  0.00  0.00    +0.119 HD
ENDBRANCH   1   2
BRANCH   1   5
ATOM      5  C   ASP A  1        2.805   0.865  -2.567  0.00  0.00    +0.322 C 
ATOM      6  OXT ASP A  1        3.950   1.186  -2.825  0.00  0.00    -0.249 OA
BRANCH   5   7
ATOM      7  O   ASP A  1        2.450  -0.372  -2.936  0.00  0.00    -0.480 OA
ATOM      8  H   ASP A  1        3.334  -0.641  -3.233  0.00  0.00    +0.295 HD
ENDBRANCH   5   7
ENDBRANCH   1   5
BRANCH   1   9
ATOM      9  CB  ASP A  1        0.534   1.088  -1.255  0.00  0.00    +0.155 C 
BRANCH   9  11
ATOM     10  OD2 ASP A  1       -0.042   2.161   0.733  0.00  0.00    -0.246 OA
ATOM     11  CG  ASP A  1       -0.277   2.094  -0.454  0.00  0.00    +0.358 C 
ATOM     12  OD1 ASP A  1       -0.963   2.890  -1.082  0.00  0.00    -0.246 OA
ENDBRANCH   9  11
ENDBRANCH   1   9
TORSDOF 5
