REMARK  Name = gln.pdb
REMARK                            x       y       z     vdW  Elec       q    Type
REMARK                         _______ _______ _______ _____ _____    ______ ____
ROOT
ATOM      1  CA  GLN A  1        0.008  -2.658   0.492  0.00  0.00    +0.161 C 
ENDROOT
BRANCH   1   2
ATOM      2  N   GLN A  1       -1.273  -3.128  -0.102  0.00  0.00    -0.318 NA
ATOM      3  H1  GLN A  1       -1.817  -3.620   0.613  0.00  0.00    +0.119 HD
ATOM      4  H2  GLN A  1       -1.826  -2.336  -0.432  0.00  0.00    +0.119 HD
ENDBRANCH   1   2
BRANCH   1   5
ATOM      5  C   GLN A  1        0.859  -3.781   1.144  0.00  0.00    +0.322 C 
ATOM      6  O   GLN A  1        2.056  -3.930   1.008  0.00  0.00    -0.249 OA
BRANCH   5   7
ATOM      7  OXT GLN A  1        0.265  -4.454   2.136  0.00  0.00    -0.480 OA
ATOM      8  HXT GLN A  1        1.033  -4.979   2.415  0.00  0.00    +0.295 HD
ENDBRANCH   5   7
ENDBRANCH   1   5
BRANCH   1   9
ATOM      9  CB  GLN A  1       -0.280  -1.520   1.500  0.00  0.00    +0.039 C 
BRANCH   9  10
ATOM     10  CG  GLN A  1       -0.975  -0.294   0.852  0.00  0.00    +0.097 C 
BRANCH  10  14
ATOM     11  NE2 GLN A  1       -2.167   0.647   2.777  0.00  0.00    -0.329 N 
ATOM     12 HE21 GLN A  1       -2.303   1.385   3.451  0.00  0.00    +0.145 HD
ATOM     13 HE22 GLN A  1       -2.672  -0.223   2.812  0.00  0.00    +0.145 HD
ATOM     14  CD  GLN A  1       -1.205   0.847   1.834  0.00  0.00    +0.211 C 
ATOM     15  OE1 GLN A  1       -0.580   1.883   1.824  0.00  0.00    -0.276 OA
ENDBRANCH  10  14
ENDBRANCH   9  10
ENDBRANCH   1   9
TORSDOF 6
