REMARK  Name = his.pdb
REMARK                            x       y       z     vdW  Elec       q    Type
REMARK                         _______ _______ _______ _____ _____    ______ ____
ROOT
ATOM      1  CA  HIS A  1       -2.055   2.518  -1.305  0.00  0.00    +0.166 C 
ENDROOT
BRANCH   1   2
ATOM      2  N   HIS A  1       -3.404   2.678  -0.699  0.00  0.00    -0.318 NA
ATOM      3  H1  HIS A  1       -3.252   3.033   0.262  0.00  0.00    +0.119 HD
ATOM      4  H2  HIS A  1       -3.839   1.760  -0.590  0.00  0.00    +0.119 HD
ENDBRANCH   1   2
BRANCH   1   5
ATOM      5  C   HIS A  1       -2.000   1.609  -2.573  0.00  0.00    +0.322 C 
ATOM      6  O   HIS A  1       -2.075   1.996  -3.720  0.00  0.00    -0.249 OA
BRANCH   5   7
ATOM      7  OXT HIS A  1       -1.575   0.350  -2.386  0.00  0.00    -0.480 OA
ATOM      8  HXT HIS A  1       -1.482   0.115  -3.325  0.00  0.00    +0.295 HD
ENDBRANCH   5   7
ENDBRANCH   1   5
BRANCH   1   9
ATOM      9  CB  HIS A  1       -1.075   2.105  -0.180  0.00  0.00    +0.086 C 
BRANCH   9  15
ATOM     10  CD2 HIS A  1       -0.077   4.138   1.073  0.00  0.00    +0.107 A 
ATOM     11  NE2 HIS A  1       -0.474   4.847   2.184  0.00  0.00    -0.351 N 
ATOM     12  CE1 HIS A  1       -1.643   4.277   2.666  0.00  0.00    +0.196 A 
ATOM     13  ND1 HIS A  1       -1.968   3.258   1.901  0.00  0.00    -0.241 NA
ATOM     14  HE2 HIS A  1       -0.037   5.634   2.644  0.00  0.00    +0.166 HD
ATOM     15  CG  HIS A  1       -1.065   3.106   0.937  0.00  0.00    +0.061 A 
ENDBRANCH   9  15
ENDBRANCH   1   9
TORSDOF 5
