REMARK  Name = ile.pdb
REMARK                            x       y       z     vdW  Elec       q    Type
REMARK                         _______ _______ _______ _____ _____    ______ ____
ROOT
ATOM      1  CA  ILE A  1        1.551   2.338  -1.367  0.00  0.00    +0.163 C 
ENDROOT
BRANCH   1   2
ATOM      2  N   ILE A  1        2.117   1.570  -2.505  0.00  0.00    -0.318 NA
ATOM      3  H1  ILE A  1        3.124   1.470  -2.364  0.00  0.00    +0.119 HD
ATOM      4  H2  ILE A  1        1.729   0.633  -2.519  0.00  0.00    +0.119 HD
ENDBRANCH   1   2
BRANCH   1   5
ATOM      5  CB  ILE A  1        1.632   1.495  -0.058  0.00  0.00    +0.013 C 
ATOM      6  CG2 ILE A  1        0.982   2.252   1.131  0.00  0.00    +0.009 C 
BRANCH   5   8
ATOM      7  CD1 ILE A  1        1.173  -0.823   1.030  0.00  0.00    +0.004 C 
ATOM      8  CG1 ILE A  1        0.993   0.079  -0.213  0.00  0.00    +0.002 C 
ENDBRANCH   5   8
ENDBRANCH   1   5
BRANCH   1   9
ATOM      9  C   ILE A  1        2.200   3.739  -1.204  0.00  0.00    +0.322 C 
ATOM     10  O   ILE A  1        1.632   4.806  -1.330  0.00  0.00    -0.249 OA
BRANCH   9  11
ATOM     11  OXT ILE A  1        3.501   3.759  -0.879  0.00  0.00    -0.480 OA
ATOM     12  HXT ILE A  1        3.626   4.721  -0.862  0.00  0.00    +0.295 HD
ENDBRANCH   9  11
ENDBRANCH   1   9
TORSDOF 5
