REMARK  Name = leu.pdb
REMARK                            x       y       z     vdW  Elec       q    Type
REMARK                         _______ _______ _______ _____ _____    ______ ____
ROOT
ATOM      1  CA  LEU A  1       -1.339   1.147   0.971  0.00  0.00    +0.161 C 
ENDROOT
BRANCH   1   2
ATOM      2  N   LEU A  1        0.145   1.120   0.878  0.00  0.00    -0.318 NA
ATOM      3  H1  LEU A  1        0.525   0.752   1.749  0.00  0.00    +0.119 HD
ATOM      4  H2  LEU A  1        0.491   2.075   0.784  0.00  0.00    +0.119 HD
ENDBRANCH   1   2
BRANCH   1   5
ATOM      5  C   LEU A  1       -2.058   1.794  -0.255  0.00  0.00    +0.322 C 
ATOM      6  O   LEU A  1       -2.427   1.189  -1.249  0.00  0.00    -0.249 OA
BRANCH   5   7
ATOM      7  OXT LEU A  1       -2.467   3.061  -0.119  0.00  0.00    -0.480 OA
ATOM      8  HXT LEU A  1       -2.965   3.120  -0.946  0.00  0.00    +0.295 HD
ENDBRANCH   5   7
ENDBRANCH   1   5
BRANCH   1   9
ATOM      9  CB  LEU A  1       -1.740   1.776   2.337  0.00  0.00    +0.033 C 
BRANCH   9  11
ATOM     10  CD2 LEU A  1       -1.529   1.790   4.881  0.00  0.00    +0.007 C 
ATOM     11  CG  LEU A  1       -1.158   1.043   3.580  0.00  0.00    -0.015 C 
ATOM     12  CD1 LEU A  1       -1.609  -0.436   3.646  0.00  0.00    +0.007 C 
ENDBRANCH   9  11
ENDBRANCH   1   9
TORSDOF 5
