REMARK  Name = lys.pdb
REMARK                            x       y       z     vdW  Elec       q    Type
REMARK                         _______ _______ _______ _____ _____    ______ ____
ROOT
ATOM      1  CB  LYS A  1       -0.365   0.814   0.470  0.00  0.00    +0.030 C 
ENDROOT
BRANCH   1   2
ATOM      2  CG  LYS A  1        0.636  -0.223  -0.103  0.00  0.00    +0.000 C 
BRANCH   2   3
ATOM      3  CD  LYS A  1        1.738  -0.619   0.914  0.00  0.00    -0.019 C 
BRANCH   3   4
ATOM      4  CE  LYS A  1        2.764  -1.594   0.294  0.00  0.00    -0.086 C 
BRANCH   4   5
ATOM      5  NZ  LYS A  1        3.911  -1.969   1.241  0.00  0.00    +0.378 N 
ATOM      6  HZ1 LYS A  1        3.561  -2.433   2.096  0.00  0.00    -0.090 HD
ATOM      7  HZ2 LYS A  1        4.439  -1.134   1.545  0.00  0.00    -0.090 HD
ATOM      8  HZ3 LYS A  1        4.586  -2.615   0.793  0.00  0.00    -0.090 HD
ENDBRANCH   4   5
ENDBRANCH   3   4
ENDBRANCH   2   3
ENDBRANCH   1   2
BRANCH   1   9
ATOM      9  CA  LYS A  1       -1.518   1.214  -0.495  0.00  0.00    +0.161 C 
BRANCH   9  10
ATOM     10  N   LYS A  1       -0.965   1.875  -1.711  0.00  0.00    -0.318 NA
ATOM     11  H1  LYS A  1       -0.682   2.838  -1.508  0.00  0.00    +0.119 HD
ATOM     12  H2  LYS A  1       -0.174   1.367  -2.106  0.00  0.00    +0.119 HD
ENDBRANCH   9  10
BRANCH   9  13
ATOM     13  C   LYS A  1       -2.635   2.046   0.228  0.00  0.00    +0.322 C 
ATOM     14  O   LYS A  1       -3.821   2.026  -0.026  0.00  0.00    -0.249 OA
BRANCH  13  15
ATOM     15  OXT LYS A  1       -2.230   2.784   1.273  0.00  0.00    -0.480 OA
ATOM     16  HXT LYS A  1       -3.101   3.124   1.524  0.00  0.00    +0.295 HD
ENDBRANCH  13  15
ENDBRANCH   9  13
ENDBRANCH   1   9
TORSDOF 8
