REMARK  Name = phe.pdb
REMARK                            x       y       z     vdW  Elec       q    Type
REMARK                         _______ _______ _______ _____ _____    ______ ____
ROOT
ATOM      1  CA  PHE A  1        0.240   0.524  -0.331  0.00  0.00    +0.165 C 
ENDROOT
BRANCH   1   2
ATOM      2  N   PHE A  1       -1.190   0.893  -0.157  0.00  0.00    -0.318 NA
ATOM      3  H1  PHE A  1       -1.448   0.755   0.822  0.00  0.00    +0.119 HD
ATOM      4  H2  PHE A  1       -1.295   1.893  -0.351  0.00  0.00    +0.119 HD
ENDBRANCH   1   2
BRANCH   1   5
ATOM      5  C   PHE A  1        0.591  -0.933   0.071  0.00  0.00    +0.322 C 
ATOM      6  O   PHE A  1        1.461  -1.606  -0.439  0.00  0.00    -0.249 OA
BRANCH   5   7
ATOM      7  OXT PHE A  1        0.165  -1.317   1.278  0.00  0.00    -0.480 OA
ATOM      8  HXT PHE A  1        0.635  -2.166   1.307  0.00  0.00    +0.295 HD
ENDBRANCH   5   7
ENDBRANCH   1   5
BRANCH   1   9
ATOM      9  CB  PHE A  1        1.135   1.532   0.428  0.00  0.00    +0.065 C 
BRANCH   9  10
ATOM     10  CG  PHE A  1        0.895   2.978   0.006  0.00  0.00    -0.045 A 
ATOM     11  CD2 PHE A  1        0.074   3.817   0.781  0.00  0.00    +0.004 A 
ATOM     12  CE2 PHE A  1       -0.161   5.144   0.385  0.00  0.00    +0.000 A 
ATOM     13  CZ  PHE A  1        0.431   5.642  -0.787  0.00  0.00    +0.000 A 
ATOM     14  CE1 PHE A  1        1.262   4.814  -1.558  0.00  0.00    +0.000 A 
ATOM     15  CD1 PHE A  1        1.493   3.485  -1.162  0.00  0.00    +0.004 A 
ENDBRANCH   9  10
ENDBRANCH   1   9
TORSDOF 5
