REMARK  Name = pro.pdb
REMARK                            x       y       z     vdW  Elec       q    Type
REMARK                         _______ _______ _______ _____ _____    ______ ____
ROOT
ATOM      1  CA  PRO A  1        0.688   1.370   0.014  0.00  0.00    +0.163 C 
ATOM      2  N   PRO A  1       -0.693   1.856   0.293  0.00  0.00    -0.304 NA
ATOM      3  H   PRO A  1       -0.607   2.869   0.457  0.00  0.00    +0.123 HD
ATOM      4  CD  PRO A  1       -1.496   1.656  -0.921  0.00  0.00    +0.082 C 
ATOM      5  CG  PRO A  1       -0.505   1.911  -2.062  0.00  0.00    +0.017 C 
ATOM      6  CB  PRO A  1        0.808   1.309  -1.528  0.00  0.00    +0.031 C 
ENDROOT
BRANCH   1   7
ATOM      7  C   PRO A  1        1.814   2.212   0.673  0.00  0.00    +0.322 C 
ATOM      8  OXT PRO A  1        2.923   1.812   0.962  0.00  0.00    -0.249 OA
BRANCH   7   9
ATOM      9  O   PRO A  1        1.570   3.525   0.795  0.00  0.00    -0.480 OA
ATOM     10  H   PRO A  1        2.428   3.764   1.177  0.00  0.00    +0.295 HD
ENDBRANCH   7   9
ENDBRANCH   1   7
TORSDOF 2
