REMARK  Name = ser.pdb
REMARK                            x       y       z     vdW  Elec       q    Type
REMARK                         _______ _______ _______ _____ _____    ______ ____
ROOT
ATOM      1  CA  LIG    1       -0.918   1.044  -1.001  0.00  0.00    +0.186 C 
ENDROOT
BRANCH   1   2
ATOM      2  N   LIG    1        0.088   1.937  -1.639  0.00  0.00    -0.317 NA
ATOM      3  H1  LIG    1       -0.434   2.781  -1.900  0.00  0.00    +0.119 HD
ATOM      4  H2  LIG    1        0.384   1.515  -2.521  0.00  0.00    +0.119 HD
ENDBRANCH   1   2
BRANCH   1   5
ATOM      5  C   LIG    1       -0.450  -0.402  -0.699  0.00  0.00    +0.324 C 
ATOM      6  O   LIG    1       -0.729  -1.027   0.304  0.00  0.00    -0.249 OA
BRANCH   5   7
ATOM      7  O   LIG    1       -0.052  -1.114  -1.762  0.00  0.00    -0.479 OA
ATOM      8  H   LIG    1        0.009  -1.978  -1.322  0.00  0.00    +0.295 HD
ENDBRANCH   5   7
ENDBRANCH   1   5
BRANCH   1   9
ATOM      9  C   LIG    1       -2.209   1.042  -1.854  0.00  0.00    +0.185 C 
BRANCH   9  10
ATOM     10  O   LIG    1       -2.604   2.386  -2.155  0.00  0.00    -0.393 OA
ATOM     11  H   LIG    1       -3.465   2.363  -2.613  0.00  0.00    +0.209 HD
ENDBRANCH   9  10
ENDBRANCH   1   9
TORSDOF 5
