REMARK  Name = trp.pdb
REMARK                            x       y       z     vdW  Elec       q    Type
REMARK                         _______ _______ _______ _____ _____    ______ ____
ROOT
ATOM      1  CG  TRP A  1       -0.977  -1.642  -0.355  0.00  0.00    -0.020 A 
ATOM      2  CD1 TRP A  1       -2.366  -1.631  -0.400  0.00  0.00    +0.087 A 
ATOM      3  NE1 TRP A  1       -2.812  -2.961  -0.502  0.00  0.00    -0.360 N 
ATOM      4  CE2 TRP A  1       -1.707  -3.783  -0.540  0.00  0.00    +0.047 A 
ATOM      5  CZ2 TRP A  1       -1.665  -5.176  -0.668  0.00  0.00    +0.026 A 
ATOM      6  CH2 TRP A  1       -0.398  -5.792  -0.704  0.00  0.00    +0.002 A 
ATOM      7  CZ3 TRP A  1        0.780  -5.013  -0.611  0.00  0.00    +0.001 A 
ATOM      8  CE3 TRP A  1        0.702  -3.610  -0.480  0.00  0.00    +0.010 A 
ATOM      9  HE1 TRP A  1       -3.771  -3.269  -0.556  0.00  0.00    +0.165 HD
ATOM     10  CD2 TRP A  1       -0.570  -3.024  -0.449  0.00  0.00    +0.003 A 
ENDROOT
BRANCH   1  11
ATOM     11  CB  TRP A  1       -0.144  -0.383  -0.316  0.00  0.00    +0.067 C 
BRANCH  11  12
ATOM     12  CA  TRP A  1        0.200   0.135  -1.735  0.00  0.00    +0.165 C 
BRANCH  12  13
ATOM     13  N   TRP A  1        0.723  -0.985  -2.563  0.00  0.00    -0.318 NA
ATOM     14  H1  TRP A  1        1.656  -1.230  -2.223  0.00  0.00    +0.119 HD
ATOM     15  H2  TRP A  1        0.133  -1.803  -2.370  0.00  0.00    +0.119 HD
ENDBRANCH  12  13
BRANCH  12  16
ATOM     16  C   TRP A  1        1.125   1.379  -1.665  0.00  0.00    +0.322 C 
ATOM     17  O   TRP A  1        0.745   2.532  -1.636  0.00  0.00    -0.249 OA
BRANCH  16  18
ATOM     18  OXT TRP A  1        2.382   1.140  -1.276  0.00  0.00    -0.480 OA
ATOM     19  HXT TRP A  1        2.675   2.061  -1.181  0.00  0.00    +0.295 HD
ENDBRANCH  16  18
ENDBRANCH  12  16
ENDBRANCH  11  12
ENDBRANCH   1  11
TORSDOF 5
