REMARK  Name = tyr.pdb
REMARK                            x       y       z     vdW  Elec       q    Type
REMARK                         _______ _______ _______ _____ _____    ______ ____
ROOT
ATOM      1  CB  TYR A  1       -0.144   3.454  -1.065  0.00  0.00    +0.065 C 
ENDROOT
BRANCH   1   2
ATOM      2  CG  TYR A  1       -1.041   4.110  -0.015  0.00  0.00    -0.045 A 
ATOM      3  CD2 TYR A  1       -0.578   5.201   0.747  0.00  0.00    +0.007 A 
ATOM      4  CE2 TYR A  1       -1.414   5.798   1.705  0.00  0.00    +0.045 A 
ATOM      5  CZ  TYR A  1       -2.714   5.310   1.905  0.00  0.00    +0.117 A 
ATOM      6  CE1 TYR A  1       -3.165   4.199   1.179  0.00  0.00    +0.045 A 
ATOM      7  CD1 TYR A  1       -2.334   3.603   0.214  0.00  0.00    +0.007 A 
BRANCH   5   8
ATOM      8  OH  TYR A  1       -3.561   5.955   2.744  0.00  0.00    -0.507 OA
ATOM      9  HH  TYR A  1       -3.245   6.872   2.819  0.00  0.00    +0.292 HD
ENDBRANCH   5   8
ENDBRANCH   1   2
BRANCH   1  10
ATOM     10  CA  TYR A  1        0.571   2.197  -0.510  0.00  0.00    +0.165 C 
BRANCH  10  11
ATOM     11  N   TYR A  1        1.332   2.554   0.718  0.00  0.00    -0.318 NA
ATOM     12  H1  TYR A  1        0.709   3.073   1.338  0.00  0.00    +0.119 HD
ATOM     13  H2  TYR A  1        2.084   3.195   0.455  0.00  0.00    +0.119 HD
ENDBRANCH  10  11
BRANCH  10  14
ATOM     14  C   TYR A  1        1.429   1.521  -1.610  0.00  0.00    +0.322 C 
ATOM     15  O   TYR A  1        1.066   0.607  -2.317  0.00  0.00    -0.249 OA
BRANCH  14  16
ATOM     16  OXT TYR A  1        2.515   2.217  -1.976  0.00  0.00    -0.480 OA
ATOM     17  HXT TYR A  1        2.787   1.675  -2.733  0.00  0.00    +0.295 HD
ENDBRANCH  14  16
ENDBRANCH  10  14
ENDBRANCH   1  10
TORSDOF 6
